Circuit: * C:\users\ostoja\Desktop\pedale\noise_gate\noise_gate\simulations\bjt_peak_detect.asc

Limiting rise time of source v3 to 0.001
Limiting fall time of source v3 to 0.001
Direct Newton iteration for .op point succeeded.
.step ampl=0.5
.step ampl=0.6
.step ampl=0.7
.step ampl=0.8
.step ampl=0.9

Date: Mon Jun 02 23:57:55 2025
Total elapsed time: 1.097 seconds.

tnom = 27
temp = 27
method = trap
totiter = 88965
traniter = 88950
tranpoints = 31573
accept = 21738
rejected = 9835
matrix size = 27
fillins = 12
solver = Normal
Matrix Compiler1:     119 opcodes  0.3/[0.2]/0.2
Matrix Compiler2: off  [0.2]/0.2/0.2

