Circuit: * C:\users\ostoja\Desktop\02_Elektronika\pedale\noise_gate\noise_gate\simulations\JFET_based_off.asc

WARNING: Node N004 is floating.

WARNING: Less than two connections to node NC_01.  This node is used by R18.
WARNING: Less than two connections to node NC_02.  This node is used by R27.
Direct Newton iteration failed to find .op point.  (Use ".option noopiter" to skip.)
Starting Gmin stepping
Gmin = 10
vernier = 0.5
vernier = 0.25
vernier = 0.125
Gmin = 5.5165
vernier = 0.0625
vernier = 0.03125
vernier = 0.015625
vernier = 0.0078125
Gmin = 5.49501
vernier = 0.00390625
vernier = 0.00195313
vernier = 0.000976563
vernier = 0.000488281
Gmin = 5.50104
Gmin = 0
Gmin stepping succeeded in finding the operating point.


Date: Sat Jul 04 09:25:50 2026
Total elapsed time: 0.180 seconds.

tnom = 27
temp = 27
method = trap
totiter = 16660
traniter = 15204
tranpoints = 6717
accept = 4141
rejected = 2576
matrix size = 86
fillins = 111
solver = Normal
Matrix Compiler1:     459 opcodes  1.1/[0.4]/0.5
Matrix Compiler2: off
