Circuit: * C:\users\ostoja\Desktop\02_Elektronika\pedale\noise_gate\noise_gate\simulations\LM13700.asc

WARNING: Node NC_03 is floating.
WARNING: Node NC_06 is floating.
WARNING: Node NC_08 is floating.

WARNING: Less than two connections to node NC_01.  This node is used by Q1.
WARNING: Less than two connections to node NC_02.  This node is used by Q1.
WARNING: Less than two connections to node NC_03.  This node is used by Q1.
WARNING: Less than two connections to node NC_04.  This node is used by Q2.
WARNING: Less than two connections to node NC_05.  This node is used by Q2.
WARNING: Less than two connections to node NC_06.  This node is used by Q2.
WARNING: Less than two connections to node NC_07.  This node is used by D1.
WARNING: Less than two connections to node NC_08.  This node is used by D1.
Direct Newton iteration for .op point succeeded.

Date: Fri Jul 03 23:49:39 2026
Total elapsed time: 0.198 seconds.

tnom = 27
temp = 27
method = trap
totiter = 12051
traniter = 12022
tranpoints = 6012
accept = 3617
rejected = 2395
matrix size = 77
fillins = 52
solver = Normal
Matrix Compiler1:     452 opcodes  1.0/[0.4]/0.4
Matrix Compiler2: off
