Circuit: * C:\users\ostoja\Desktop\pedale\noise_gate\noise_gate\simulations\threshold.asc

Limiting rise time of source v3 to 0.01
Limiting fall time of source v3 to 0.01
Early termination of direct N-R iteration.
Direct Newton iteration failed to find .op point.  (Use ".option noopiter" to skip.)
Starting Gmin stepping
Gmin = 10
vernier = 0.5
vernier = 0.25
vernier = 0.125
Gmin = 5.5165
vernier = 0.0625
vernier = 0.03125
vernier = 0.015625
vernier = 0.0078125
Gmin = 5.49501
vernier = 0.00390625
vernier = 0.00195313
vernier = 0.000976563
vernier = 0.000488281
Gmin = 5.50104
Gmin = 0
Gmin stepping failed

Starting source stepping with srcstepmethod=0
Source Step = 3.0303%
Source Step = 28.0303%
vernier = 0.0625
Source Step = 29.1667%
Source Step = 31.0606%
Source Step = 32.9545%
Source Step = 34.8485%
Source Step = 36.7424%
vernier = 0.09375
Source Step = 39.4886%
Source Step = 42.3295%
Source Step = 45.1705%
Source Step = 48.0114%
Source Step = 50.8523%
vernier = 0.140625
Source Step = 54.8295%
Source Step = 59.0909%
Source Step = 63.3523%
Source Step = 67.6136%
Source Step = 71.875%
vernier = 0.210938
Source Step = 77.6278%
Source Step = 84.0199%
Source Step = 90.4119%
Source Step = 96.804%
Source stepping succeeded in finding the operating point.

Heightened Def Con from 0.00974838 to 0.00974838
Heightened Def Con from 0.286705 to 0.286705

Date: Mon Jun 02 19:48:58 2025
Total elapsed time: 20.731 seconds.

tnom = 27
temp = 27
method = trap
totiter = 488875
traniter = 486203
tranpoints = 150687
accept = 104429
rejected = 46260
matrix size = 215
fillins = 2961
solver = Normal
Thread vector: 8.1/5.6[4] 2.8/4.1[1] 2.0/3.1[1] 0.8/1.8[1]  2592/500
Matrix Compiler1:   36630 opcodes  72.1/24.4/[24.2]
Matrix Compiler2:    4396 opcodes
